Estimador_Hibrido/med/BASES/PMU Calibration/Full_PMU_Marcio_VTIinj/Full_PMU_MVI.txt
================================================================================= 
=== UFF - Doutorado em Computação - Aplicaçoes em Sistemas de Potencia        === 
=== ESTIMADOR DE ESTADO MÍNIMOS QUADRADOS PONDERADOS INCLUINDO MEDIDAS DE PMU === 
=== Desenvolvido por: Rui Menezes de Moraes - 2009                            === 
================================================================================= 
Arquivo de medidores:          .\med\CS1_39M_PMU_VI.med
Arquivo do sistema:            .\sist\ieee14.cdf
Tolerância entre iteraçoes:    1.00e-005
Limite de iteraçoes:           100

--- DADOS DA REDE --------------------------------------------------------------- 
Data do caso:                  08/19/93
Origem:                        UW ARCHIVE          
MVA base:                      100
Ano:                           1962
Estação:                       W
Identificação:                 IEEE 14 Bus Test Case
Número de barras:              14 
Número de ramos:               20 
Referência na barra:           1

--- TELEMEDIDAS ------------------------------------------------------------------
    Tipo 1 = Fluxo de potencia ativa        Tipo  6 = Módulo da tensão            
    Tipo 2 = Injeção de potencia ativa      Tipo  7 = Corrente de ramo (real)     
    Tipo 3 = Ângulo de fase da tensão       Tipo  8 = Corrente de ramo (imag)     
    Tipo 4 = Fluxo de potencia reativa      Tipo  9 = Injeção de corrente (real)  
    Tipo 5 = Injeção de potencia reativa    Tipo 10 = Injeção de corrente (imag)  
----------------------------------------------------------------------------------
   N    D    P TP  PN ST   Exa   FS       DP      V_Ref      V_Med          E(%) 
----------------------------------------------------------------------------------
   1    1    2  1   0  0 0.020 01.0  0.00015   +1.56805   +1.56277     -0.336724 
   2    1    5  1   0  0 0.020 01.0  0.00005   +0.75460   +0.74333     -1.493506 
   3    2    3  1   0  0 0.020 01.0  0.00004   +0.73305   +0.73388     +0.113226 
   4    4    7  1   0  0 0.020 01.0  0.00001   +0.28126   +0.28230     +0.369765 
   5    4    9  1   0  0 0.020 01.0  0.00001   +0.16101   +0.15779     -1.999876 
   6    5    2  1   0  0 0.020 01.0  0.00002   -0.40536   -0.40007     -1.305013 
   7    6   11  1   0  0 0.020 01.0  0.00001   +0.07337   +0.07601     +3.598201 
   8    6   12  1   0  0 0.020 01.0  0.00001   +0.07850   +0.07841     -0.114650 
   9    6   13  1   0  0 0.020 01.0  0.00001   +0.17927   +0.18023     +0.535505 
  10    7    8  1   0  0 0.020 01.0  0.00000   +0.00000   +0.00030     +0.000000 
  11    8    7  1   0  0 0.020 01.0  0.00000   +0.00000   -0.00032     +0.000000 
  12    9   10  1   0  0 0.020 01.0  0.00000   +0.05275   +0.05426     +2.862559 
  13    9   14  1   0  0 0.020 01.0  0.00001   +0.09340   +0.09201     -1.488223 
  14   12   13  1   0  0 0.020 01.0  0.00000   +0.01662   +0.02064    +24.187726 
  15    0    3  2   0  0 0.020 01.0  0.00006   -0.94406   -0.94516     +0.116518 
  16    0    6  2   0  0 0.020 01.0  0.00001   -0.11019   -0.10990     -0.263182 
  17    0    9  2   0  0 0.020 01.0  0.00001   -0.29595   -0.29200     -1.334685 
  18    0   10  2   0  0 0.020 01.0  0.00001   -0.09091   -0.09077     -0.153998 
  19    0   13  2   0  0 0.020 01.0  0.00001   -0.13855   -0.13880     +0.180440 
  20    0    1  6   0  0 0.015 01.1  0.00003   +1.06000   +1.05559     -0.416038 
  21    1    2  4   0  0 0.020 01.0  0.00001   -0.20386   -0.20295     -0.446385 
  22    1    5  4   0  0 0.020 01.0  0.00000   +0.03634   +0.03370     -7.264722 
  23    2    3  4   0  0 0.020 01.0  0.00000   +0.03554   +0.03694     +3.939223 
  24    4    7  4   0  0 0.020 01.0  0.00001   -0.09754   -0.09367     -3.967603 
  25    4    9  4   0  0 0.020 01.0  0.00000   -0.00375   -0.00497    +32.533333 
  26    5    2  4   0  0 0.020 01.0  0.00000   -0.01848   -0.01689     -8.603896 
  27    6   11  4   0  0 0.020 01.0  0.00000   +0.03518   +0.03765     +7.021035 
  28    6   12  4   0  0 0.020 01.0  0.00000   +0.02552   +0.02249    -11.873041 
  29    6   13  4   0  0 0.020 01.0  0.00001   +0.07440   +0.07119     -4.314516 
  30    7    8  4   0  0 0.020 01.0  0.00001   -0.16881   -0.16718     -0.965583 
  31    8    7  4   0  0 0.020 01.0  0.00001   +0.17326   +0.17211     -0.663742 
  32    9   10  4   0  0 0.020 01.0  0.00000   +0.04268   +0.04407     +3.256795 
  33    9   14  4   0  0 0.020 01.0  0.00000   +0.03494   +0.03654     +4.579279 
  34   12   13  4   0  0 0.020 01.0  0.00000   +0.00803   +0.00930    +15.815691 
  35    0    3  5   0  0 0.020 01.0  0.00001   +0.05965   +0.06240     +4.610226 
  36    0    6  5   0  0 0.020 01.0  0.00000   +0.05243   +0.05382     +2.651154 
  37    0    9  5   0  0 0.020 01.0  0.00000   -0.17115   -0.17388     +1.595092 
  38    0   10  5   0  0 0.020 01.0  0.00001   -0.05872   -0.06127     +4.342643 
  39    0   13  5   0  0 0.020 01.0  0.00001   -0.06255   -0.06259     +0.063949 
  42    0    1  9   1  0 0.010 01.0  0.00000   +2.19118   +2.19829     +0.324483 
  43    0    1 10   1  0 0.010 01.0  0.00000   +0.15803   +0.15908     +0.664431 
  46    0    2  9   2  0 0.010 01.0  0.00000   +0.14938   +0.14821     -0.783237 
  47    0    2 10   2  0 0.010 01.0  0.00000   -0.30477   -0.30584     +0.351084 
  50    0    3  9   3  0 0.010 01.0  0.00000   -0.92477   -0.91867     -0.659623 
  51    0    3 10   3  0 0.010 01.0  0.00000   +0.14820   +0.14746     -0.499325 
  54    0    4  9   4  0 0.010 01.0  0.00000   -0.46812   -0.46512     -0.640861 
  55    0    4 10   4  0 0.010 01.0  0.00000   +0.04662   +0.04679     +0.364650 
  58    0    5  9   5  0 0.010 01.0  0.00000   -0.06922   -0.06950     +0.404507 
  59    0    5 10   5  0 0.010 01.0  0.00000   +0.01659   +0.01650     -0.542495 
  62    0    6  9   6  0 0.010 01.0  0.00000   -0.11185   -0.11116     -0.616898 
  63    0    6 10   6  0 0.010 01.0  0.00000   -0.02219   -0.02223     +0.180261 
  66    0    7  9   7  0 0.010 01.0  0.00000   -0.00182   -0.00181     -0.549451 
  67    0    7 10   7  0 0.010 01.0  0.00000   -0.00695   -0.00699     +0.575540 
  70    0    8  9   8  0 0.010 01.0  0.00000   -0.03672   -0.03646     -0.708061 
  71    0    8 10   8  0 0.010 01.0  0.00000   -0.15465   -0.15482     +0.109926 
  74    0    9  9   9  0 0.010 01.0  0.00000   -0.28071   -0.28070     -0.003562 
  75    0    9 10   9  0 0.010 01.0  0.00000   +0.03499   +0.03494     -0.142898 
  78    0   10  9  10  0 0.010 01.0  0.00000   -0.06894   -0.06855     -0.565709 
  79    0   10 10  10  0 0.010 01.0  0.00000   +0.07647   +0.07674     +0.353080 
  82    0   11  9  11  0 0.010 01.0  0.00000   -0.02727   -0.02748     +0.770077 
  83    0   11 10  11  0 0.010 01.0  0.00000   +0.02416   +0.02406     -0.413907 
  86    0   12  9  12  0 0.010 01.0  0.00000   -0.05203   -0.05159     -0.845666 
  87    0   12 10  12  0 0.010 01.0  0.00000   +0.02968   +0.02939     -0.977089 
  90    0   13  9  13  0 0.010 01.0  0.00000   -0.11178   -0.11127     -0.456253 
  91    0   13 10  13  0 0.010 01.0  0.00000   +0.09200   +0.09214     +0.152174 
  94    0   14  9  14  0 0.010 01.0  0.00000   -0.12367   -0.12307     -0.485162 
  95    0   14 10  14  0 0.010 01.0  0.00000   +0.08280   +0.08235     -0.543478 
  40    0    1  3   1  0 0.020 01.0  0.00000   +0.00000   -0.00002     +0.000000 
  41    0    1  6   1  0 0.010 01.0  0.00003   +1.06000   +1.05559     -0.416038 
  44    0    2  3   2  0 0.020 01.0  0.00000   -0.08692   -0.08694     +0.023010 
  45    0    2  6   2  0 0.010 01.0  0.00000   +1.04500   +1.04304     -0.187560 
  48    0    3  3   3  0 0.020 01.0  0.00000   -0.22218   -0.22206     -0.054010 
  49    0    3  6   3  0 0.010 01.0  0.00000   +1.01000   +1.00401     -0.593069 
  52    0    4  3   4  0 0.020 01.0  0.00000   -0.17994   -0.17994     +0.000000 
  53    0    4  6   4  0 0.010 01.0  0.00000   +1.01800   +1.01263     -0.527505 
  56    0    5  3   5  0 0.020 01.0  0.00000   -0.15307   -0.15308     +0.006533 
  57    0    5  6   5  0 0.010 01.0  0.00000   +1.02000   +1.02751     +0.736275 
  60    0    6  3   6  0 0.020 01.0  0.00000   -0.24819   -0.24828     +0.036263 
  61    0    6  6   6  0 0.010 01.0  0.00000   +1.07000   +1.07030     +0.028037 
  64    0    7  3   7  0 0.020 01.0  0.00000   -0.23318   -0.23314     -0.017154 
  65    0    7  6   7  0 0.010 01.0  0.00000   +1.06200   +1.05554     -0.608286 
  68    0    8  3   8  0 0.020 01.0  0.00000   -0.23318   -0.23333     +0.064328 
  69    0    8  6   8  0 0.010 01.0  0.00000   +1.09000   +1.08978     -0.020183 
  72    0    9  3   9  0 0.020 01.0  0.00000   -0.26075   -0.26067     -0.030681 
  73    0    9  6   9  0 0.010 01.0  0.00000   +1.05600   +1.05004     -0.564394 
  76    0   10  3  10  0 0.020 01.0  0.00000   -0.26354   -0.26336     -0.068301 
  77    0   10  6  10  0 0.010 01.0  0.00000   +1.05100   +1.04391     -0.674596 
  80    0   11  3  11  0 0.020 01.0  0.00000   -0.25813   -0.25821     +0.030992 
  81    0   11  6  11  0 0.010 01.0  0.00000   +1.05700   +1.05562     -0.130558 
  84    0   12  3  12  0 0.020 01.0  0.00000   -0.26320   -0.26310     -0.037994 
  85    0   12  6  12  0 0.010 01.0  0.00000   +1.05500   +1.06003     +0.476777 
  88    0   13  3  13  0 0.020 01.0  0.00000   -0.26459   -0.26445     -0.052912 
  89    0   13  6  13  0 0.010 01.0  0.00000   +1.05000   +1.05068     +0.064762 
  92    0   14  3  14  0 0.020 01.0  0.00000   -0.27978   -0.27996     +0.064336 
  93    0   14  6  14  0 0.010 01.0  0.00000   +1.03600   +1.03940     +0.328185 
----------------------------------------------------------------------------------
Número de medidores SCADA:     39
Número de PMUs:                14
Número de medidas das PMUs:    56
----------------------------------------------------------------------------------

Matriz de pesos formada com as covariâncias das telemedidas.
Medidas de ângulo: 
Barra: 1
Barra: 2
Barra: 3
Barra: 4
Barra: 5
Barra: 6
Barra: 7
Barra: 8
Barra: 9
Barra: 10
Barra: 11
Barra: 12
Barra: 13
Barra: 14
Não há medidores desabilitados.
============= Estado Ref =============== Estado Est ================ TVE =========
Barra     Mod(pu)    Ang(graus)      Mod(pu)   Ang(graus)            (%)         
----------------------------------------------------------------------------------
   1       1.0600         0.00        1.0301         0.08          2.8200 
   2       1.0450        -4.98        1.0155        -4.92          2.8273 
   3       1.0100       -12.73        0.9830       -12.70          2.6760 
   4       1.0180       -10.31        0.9966       -10.35          2.1022 
   5       1.0200        -8.77        0.9973        -8.81          2.2234 
   6       1.0700       -14.22        1.0547       -14.17          1.4282 
   7       1.0620       -13.36        1.0533       -13.44          0.8268 
   8       1.0900       -13.36        1.0769       -13.48          1.2211 
   9       1.0560       -14.94        1.0570       -14.97          0.1125 
  10       1.0510       -15.10        1.0487       -15.12          0.2253 
  11       1.0570       -14.79        1.0483       -14.79          0.8238 
  12       1.0550       -15.08        1.0402       -15.03          1.4068 
  13       1.0500       -15.16        1.0358       -15.12          1.3510 
  14       1.0360       -16.03        1.0292       -16.01          0.6539 
----------------------------------------------------------------------------------
Convergiu em:    4 iteraçoes com TVE medio de     1.4785 
----------------------------------------------------------------------------------
--- RESIDUOS NORMALIZADOS --------------------------------------------------------
--- Fluxo de potencia ativa     --------------------------------------------------
   N    D    P  TP      Real     Medido   Estimado      Med-Est        rn 
----------------------------------------------------------------------------------
   7    6   11  1    +0.0734    +0.0760    +0.0619  +1.4075e-002      6.301 
   1    1    2  1    +1.5680    +1.5628    +1.4880  +7.4741e-002      6.240 
   3    2    3  1    +0.7330    +0.7339    +0.6938  +4.0034e-002      6.107 
  12    9   10  1    +0.0527    +0.0543    +0.0639  -9.6352e-003      4.627 
  13    9   14  1    +0.0934    +0.0920    +0.1017  -9.6598e-003      4.142 
   6    5    2  1    -0.4054    -0.4001    -0.3833  -1.6732e-002      3.826 
   2    1    5  1    +0.7546    +0.7433    +0.7197  +2.3614e-002      3.566 
  14   12   13  1    +0.0166    +0.0206    +0.0150  +5.6625e-003      3.031 
   9    6   13  1    +0.1793    +0.1802    +0.1727  +7.5657e-003      2.591 
  10    7    8  1    +0.0000    +0.0003    +0.0048  -4.4692e-003      2.586 
  11    8    7  1    +0.0000    -0.0003    -0.0048  +4.4492e-003      2.575 
   4    4    7  1    +0.2813    +0.2823    +0.2760  +6.2940e-003      1.753 
   8    6   12  1    +0.0785    +0.0784    +0.0760  +2.4254e-003      1.077 
   5    4    9  1    +0.1610    +0.1578    +0.1573  +4.4045e-004      0.159 
--- Injeção de potencia ativa   --------------------------------------------------
   N    D    P  TP      Real     Medido   Estimado      Med-Est        rn 
----------------------------------------------------------------------------------
  17    0    9  2    -0.2959    -0.2920    -0.2629  -2.9135e-002      8.073 
  15    0    3  2    -0.9441    -0.9452    -0.8998  -4.5393e-002      5.741 
  16    0    6  2    -0.1102    -0.1099    -0.1084  -1.5235e-003      0.625 
  19    0   13  2    -0.1386    -0.1388    -0.1395  +6.9964e-004      0.266 
  18    0   10  2    -0.0909    -0.0908    -0.0908  -8.3812e-006      0.004 
--- Ângulo de fase da tensão    --------------------------------------------------
   N    D    P  TP      Real     Medido   Estimado      Med-Est        rn 
----------------------------------------------------------------------------------
  40    0    1  3    +0.0000    -0.0000    +0.0015  -1.4959e-003     20.988 
  68    0    8  3    -0.2332    -0.2333    -0.2353  +1.9218e-003     18.330 
  64    0    7  3    -0.2332    -0.2331    -0.2345  +1.3712e-003     12.638 
  44    0    2  3    -0.0869    -0.0869    -0.0859  -1.0888e-003     10.807 
  60    0    6  3    -0.2482    -0.2483    -0.2474  -9.1579e-004      8.586 
  48    0    3  3    -0.2222    -0.2221    -0.2216  -4.6041e-004      8.564 
  52    0    4  3    -0.1799    -0.1799    -0.1807  +7.7277e-004      7.553 
  84    0   12  3    -0.2632    -0.2631    -0.2624  -7.0892e-004      6.952 
  92    0   14  3    -0.2798    -0.2800    -0.2794  -5.8401e-004      6.162 
  72    0    9  3    -0.2607    -0.2607    -0.2613  +6.2829e-004      6.096 
  56    0    5  3    -0.1531    -0.1531    -0.1537  +5.9831e-004      5.597 
  88    0   13  3    -0.2646    -0.2645    -0.2639  -5.2945e-004      5.176 
  76    0   10  3    -0.2635    -0.2634    -0.2638  +4.8795e-004      4.643 
  80    0   11  3    -0.2581    -0.2582    -0.2581  -1.2951e-004      1.190 
--- Fluxo de potencia reativa   --------------------------------------------------
   N    D    P  TP      Real     Medido   Estimado      Med-Est        rn 
----------------------------------------------------------------------------------
  24    4    7  4    -0.0975    -0.0937    -0.1597  +6.6051e-002     28.356 
  25    4    9  4    -0.0037    -0.0050    -0.0464  +4.1466e-002     23.547 
  26    5    2  4    -0.0185    -0.0169    +0.0177  -3.4545e-002     18.824 
  32    9   10  4    +0.0427    +0.0441    +0.0809  -3.6815e-002     18.273 
  27    6   11  4    +0.0352    +0.0377    +0.0050  +3.2697e-002     16.510 
  22    1    5  4    +0.0363    +0.0337    +0.0065  +2.7242e-002     13.975 
  33    9   14  4    +0.0349    +0.0365    +0.0615  -2.5005e-002     12.714 
  31    8    7  4    +0.1733    +0.1721    +0.1440  +2.8149e-002      9.918 
  30    7    8  4    -0.1688    -0.1672    -0.1408  -2.6370e-002      9.390 
  23    2    3  4    +0.0355    +0.0369    +0.0258  +1.1137e-002      5.674 
  21    1    2  4    -0.2039    -0.2029    -0.1926  -1.0368e-002      3.395 
  29    6   13  4    +0.0744    +0.0712    +0.0666  +4.5928e-003      2.089 
  34   12   13  4    +0.0080    +0.0093    +0.0061  +3.2083e-003      1.789 
  28    6   12  4    +0.0255    +0.0225    +0.0240  -1.5267e-003      0.811 
--- Injeção de potencia reativa --------------------------------------------------
   N    D    P  TP      Real     Medido   Estimado      Med-Est        rn 
----------------------------------------------------------------------------------
  37    0    9  5    -0.1712    -0.1739    +0.0300  -2.0384e-001     70.679 
  35    0    3  5    +0.0597    +0.0624    +0.0329  +2.9518e-002     14.167 
  39    0   13  5    -0.0625    -0.0626    -0.0713  +8.6701e-003      4.073 
  38    0   10  5    -0.0587    -0.0613    -0.0664  +5.1391e-003      2.417 
  36    0    6  5    +0.0524    +0.0538    +0.0510  +2.8655e-003      1.372 
--- Módulo da tensão            --------------------------------------------------
   N    D    P  TP      Real     Medido   Estimado      Med-Est        rn 
----------------------------------------------------------------------------------
  57    0    5  6    +1.0200    +1.0275    +0.9973  +3.0181e-002      8.973 
  45    0    2  6    +1.0450    +1.0430    +1.0155  +2.7564e-002      8.070 
  41    0    1  6    +1.0600    +1.0556    +1.0301  +2.5442e-002      7.362 
  49    0    3  6    +1.0100    +1.0040    +0.9830  +2.1031e-002      6.404 
  85    0   12  6    +1.0550    +1.0600    +1.0402  +1.9848e-002      5.730 
  20    0    1  6    +1.0600    +1.0556    +1.0301  +2.5442e-002      4.859 
  53    0    4  6    +1.0180    +1.0126    +0.9966  +1.6016e-002      4.834 
  61    0    6  6    +1.0700    +1.0703    +1.0547  +1.5556e-002      4.446 
  89    0   13  6    +1.0500    +1.0507    +1.0358  +1.4849e-002      4.326 
  69    0    8  6    +1.0900    +1.0898    +1.0769  +1.2899e-002      3.615 
  93    0   14  6    +1.0360    +1.0394    +1.0292  +1.0162e-002      2.993 
  81    0   11  6    +1.0570    +1.0556    +1.0483  +7.3274e-003      2.124 
  73    0    9  6    +1.0560    +1.0500    +1.0570  -6.9989e-003      2.040 
  77    0   10  6    +1.0510    +1.0439    +1.0487  -4.7435e-003      1.391 
  65    0    7  6    +1.0620    +1.0555    +1.0533  +2.2065e-003      0.639 
--- Injeção de corrente (real)  --------------------------------------------------
   N    D    P  TP      Real     Medido   Estimado      Med-Est        rn 
----------------------------------------------------------------------------------
  74    0    9  9    -0.2807    -0.2807    -0.2476  -3.3139e-002     47.636 
  66    0    7  9    -0.0018    -0.0018    -0.0018  -1.5778e-006     43.513 
  54    0    4  9    -0.4681    -0.4651    -0.4313  -3.3819e-002     38.543 
  70    0    8  9    -0.0367    -0.0365    -0.0355  -9.9333e-004     32.273 
  58    0    5  9    -0.0692    -0.0695    -0.0690  -5.3565e-004     25.234 
  78    0   10  9    -0.0689    -0.0686    -0.0670  -1.5103e-003     24.965 
  82    0   11  9    -0.0273    -0.0275    -0.0274  -1.0822e-004      9.498 
  42    0    1  9    +2.1912    +2.1983    +2.1429  +5.5424e-002      7.784 
  94    0   14  9    -0.1237    -0.1231    -0.1215  -1.6105e-003      7.143 
  50    0    3  9    -0.9248    -0.9187    -0.9003  -1.8353e-002      6.443 
  86    0   12  9    -0.0520    -0.0516    -0.0519  +2.9578e-004      5.627 
  46    0    2  9    +0.1494    +0.1482    +0.1486  -3.6175e-004      5.381 
  90    0   13  9    -0.1118    -0.1113    -0.1121  +7.9456e-004      4.248 
  62    0    6  9    -0.1119    -0.1112    -0.1115  +2.9250e-004      1.820 
--- Injeção de corrente (imag)  --------------------------------------------------
   N    D    P  TP      Real     Medido   Estimado      Med-Est        rn 
----------------------------------------------------------------------------------
  75    0    9 10    +0.0350    +0.0349    +0.0369  -1.9219e-003    166.840 
  67    0    7 10    -0.0069    -0.0070    -0.0069  -5.9898e-005    145.152 
  55    0    4 10    +0.0466    +0.0468    +0.0491  -2.3464e-003    138.881 
  59    0    5 10    +0.0166    +0.0165    +0.0168  -2.9055e-004    136.778 
  83    0   11 10    +0.0242    +0.0241    +0.0248  -6.9992e-004    130.235 
  47    0    2 10    -0.3048    -0.3058    -0.2139  -9.1986e-002    128.698 
  95    0   14 10    +0.0828    +0.0824    +0.0902  -7.8923e-003    124.757 
  43    0    1 10    +0.1580    +0.1591    +0.1838  -2.4760e-002    121.398 
  79    0   10 10    +0.0765    +0.0767    +0.0837  -6.9686e-003    110.485 
  63    0    6 10    -0.0222    -0.0222    -0.0217  -5.4925e-004    109.681 
  51    0    3 10    +0.1482    +0.1475    +0.1686  -2.1092e-002    107.806 
  91    0   13 10    +0.0920    +0.0921    +0.1015  -9.4051e-003    107.261 
  71    0    8 10    -0.1547    -0.1548    -0.1290  -2.5851e-002    104.415 
  87    0   12 10    +0.0297    +0.0294    +0.0303  -9.3539e-004    103.450 
----------------------------------------------------------------------------------
Possível erro grosseiro no medidor 75!
Medida crítica   66!
Medida crítica   67!
Possíveis conjuntos críticos:
Conjunto 1: 11 10 9
Conjunto 2: 10 9
Conjunto 3: 12 76
Conjunto 4: 53 20
Conjunto 5: 56 86
Conjunto 6: 86 23
Conjunto 7: 23 85
Conjunto 8: 85 15
Conjunto 9: 72 3
Conjunto 10: 3 92
Conjunto 11: 1 7
Conjunto 12: 49 50
Conjunto 13: 45 17
Conjunto 14: 48 60
Conjunto 15: 64 33
Conjunto 16: 32 68
Conjunto 17: 87 71
Conjunto 18: 91 51
Conjunto 19: 63 79
